LTspice 24.1.9 for Windows
Circuit: Z:\home\marco\projects\circuitos2-2025\ltspice_circuit.net
Start Time: Thu Jun 12 11:26:18 2025
solver = Normal
Maximum thread count: 4
tnom = 27
temp = 27
method = trap
.OP point found by inspection.
Total elapsed time: 0.043 seconds.

Files loaded:
Z:\home\marco\projects\circuitos2-2025\ltspice_circuit.net

